*HEADING
cubit(./PlanarCapacitor2D.inp): 10/12/2023: 09:26:25
version: 2022.11
**
********************************** P A R T S **********************************
*PART, NAME=Part-Default
**
********************************** N O D E S **********************************
*NODE, NSET=ALLNODES
       1,    0.000000e+00,    1.000000e-01
       2,   -1.000000e-01,    1.000000e-01
       3,   -1.000000e-01,   -1.000000e-01
       4,    0.000000e+00,   -1.000000e-01
       5,    1.000000e-01,    1.000000e-01
       6,    1.000000e-01,   -1.000000e-01
       7,   -1.428571e-02,    1.000000e-01
       8,   -2.857143e-02,    1.000000e-01
       9,   -4.285714e-02,    1.000000e-01
      10,   -5.714286e-02,    1.000000e-01
      11,   -7.142857e-02,    1.000000e-01
      12,   -8.571429e-02,    1.000000e-01
      13,   -1.000000e-01,    8.666667e-02
      14,   -1.000000e-01,    7.333333e-02
      15,   -1.000000e-01,    6.000000e-02
      16,   -1.000000e-01,    4.666667e-02
      17,   -1.000000e-01,    3.333333e-02
      18,   -1.000000e-01,    2.000000e-02
      19,   -1.000000e-01,    6.666667e-03
      20,   -1.000000e-01,   -6.666667e-03
** ... 244 like lines cut
**
********************************** E L E M E N T S ****************************
*ELEMENT, TYPE=STRI3, ELSET=LeftSide
     235,       9,      73,       8
     236,      74,      73,       9
     237,      75,      74,      10
     238,      76,      75,      11
     239,       2,      13,      12
     240,      77,       7,       8
     241,      33,       1,       7
     242,      78,      12,      13
     243,     136,      73,      74
     244,      32,       4,      46
     245,      22,      81,      21
     246,      82,      81,      22
     247,      83,      82,      23
     248,      30,      31,      84
     249,      26,      85,      25
     250,       3,      27,      26
     251,      86,      24,      25
     252,      87,      85,      27
     253,      89,      20,      21
     254,      90,      84,      31
** ... 214 like lines cut
*ELEMENT, TYPE=STRI3, ELSET=RightSide
       1,      37,      38,     169
       2,      35,      36,     170
       3,      34,      35,     171
       4,      33,      34,     172
       5,      33,      52,       1
       6,      48,      49,     173
       7,       5,      47,      72
       8,      51,      52,     174
       9,      50,      51,     175
      10,      49,      50,     176
      11,      47,      48,     177
      12,       6,      59,      58
      13,      54,      55,     178
      14,      53,      54,     179
      15,     224,     180,     179
      16,      46,       4,      53
      17,      42,      43,     181
      18,      41,      42,     182
      19,      44,      45,     183
      20,      40,      41,     184
** ... 214 like lines cut
**
********************************** S I D E S E T S **********************************
*ELSET, ELSET=LeftPlate_E1
     239
*ELSET, ELSET=LeftPlate_E2
     251,     253,     255,     258,     261,     265,     271,     274,     276,     288,
     289
*ELSET, ELSET=LeftPlate_E3
     245,     249,     250
*SURFACE, NAME=LeftPlate
LeftPlate_E1, E1
LeftPlate_E2, E2
LeftPlate_E3, E3
*ELSET, ELSET=RightPlate_E1
      12,      23,      37,      38,      45,      53,      54,      60,      62,      67,
      72,      82,      85,      96
*ELSET, ELSET=RightPlate_E3
       7
*SURFACE, NAME=RightPlate
RightPlate_E1, E1
RightPlate_E3, E3
**
********************************** P R O P E R T I E S ************************
*SHELL SECTION, ELSET=LeftSide, SECTION INTEGRATION=SIMPSON, MATERIAL=Default-Steel
1.000000e+00
*SHELL SECTION, ELSET=RightSide, SECTION INTEGRATION=SIMPSON, MATERIAL=Default-Steel
1.000000e+00
**
*END PART
**
**
**
********************************** E N D   P A R T S **********************************
**
**
********************************** A S S E M B L Y ************************************
**
*ASSEMBLY, NAME=ASSEMBLY1
**
*INSTANCE, NAME=Part-Default_1, PART=Part-Default
*END INSTANCE
**
*END ASSEMBLY
**
**
**
*MATERIAL, NAME = Default-Steel
*ELASTIC, TYPE=ISOTROPIC
2.068000e+05, 2.900000e-01
*DENSITY
7.000000e-06
*CONDUCTIVITY,TYPE=ISO
4.500000e-02
*SPECIFIC HEAT
5.000000e+02
**
**
************************************** H I S T O R Y *************************************
**
*PREPRINT
**
**************************************** S T E P 1 ***************************************
*STEP,INC=100,NAME=Default Set
**
*STATIC
1, 1, 1e-05, 1
**
**
**
**
*END STEP
